Version 4
SHEET 1 988 680
WIRE -256 0 -336 0
WIRE -96 0 -176 0
WIRE 16 0 -96 0
WIRE 240 0 16 0
WIRE 240 64 240 0
WIRE 192 80 112 80
WIRE -336 112 -336 0
WIRE 192 128 96 128
WIRE -96 160 -96 0
WIRE 16 160 16 0
WIRE 240 192 240 144
WIRE 384 192 240 192
WIRE 608 192 464 192
WIRE 240 256 240 192
WIRE -336 368 -336 192
WIRE -96 368 -96 224
WIRE -96 368 -336 368
WIRE 16 368 16 224
WIRE 16 368 -96 368
WIRE 112 368 112 80
WIRE 112 368 16 368
WIRE 240 368 240 320
WIRE 240 368 112 368
WIRE 288 368 240 368
WIRE 368 368 288 368
WIRE 608 368 608 192
WIRE 608 368 368 368
WIRE 96 400 96 128
WIRE 96 400 32 400
WIRE 32 464 32 400
WIRE 32 608 32 544
WIRE 288 608 288 368
WIRE 288 608 32 608
FLAG 368 368 0
SYMBOL sw 240 48 R0
SYMATTR InstName S1
SYMATTR Value MYSW
SYMBOL cap -112 160 R0
SYMATTR InstName C2
SYMATTR Value 11700µF
SYMATTR SpiceLine Rser=18.3m Lser=.1u
SYMBOL voltage -336 96 R0
WINDOW 123 0 0 Left 2
WINDOW 39 24 124 Left 2
SYMATTR InstName V1
SYMATTR Value 130
SYMATTR SpiceLine Rser=3m
SYMBOL voltage 32 448 R0
WINDOW 3 -413 104 Left 2
WINDOW 123 0 0 Left 2
WINDOW 39 0 0 Left 2
SYMATTR InstName V2
SYMATTR Value PULSE(0 15 0 0 0 125u 250u)
SYMBOL ind -160 -16 R90
WINDOW 0 5 56 VBottom 2
WINDOW 3 32 56 VTop 2
SYMATTR InstName L1
SYMATTR Value 8µ
SYMBOL diode 256 320 R180
WINDOW 0 24 64 Left 2
WINDOW 3 24 0 Left 2
SYMATTR InstName D1
SYMBOL current 384 192 R270
WINDOW 0 32 40 VTop 2
WINDOW 3 -32 40 VBottom 2
WINDOW 123 0 0 Left 2
WINDOW 39 0 0 Left 2
SYMATTR InstName I1
SYMATTR Value 20
TEXT -382 618 Left 2 !.tran 0 .052 .05
TEXT 312 -160 Left 2 !.model MYSW SW(Ron=4m Roff=10Meg Vt=5 Vh=0)
